archive/ieee39_base - Copia.pwf
TITU
IEEE 39 BUS SYSTEM - BASE CASE (100% P)
DBAR
    1 0 1 BUS 01      345.0
    2 0 1 BUS 02      345.0
    3 0 1 BUS 03      345.0       322.0   2.4
    4 0 1 BUS 04      345.0       500.0 184.0
    5 0 1 BUS 05      345.0
    6 0 1 BUS 06      345.0
    7 0 1 BUS 07      345.0       233.8  84.0
    8 0 1 BUS 08      345.0       522.0 176.0
    9 0 1 BUS 09      345.0
   10 0 1 BUS 10      345.0
   11 0 1 BUS 11      345.0
   12 0 1 BUS 12      345.0         7.5  88.0
   13 0 1 BUS 13      345.0
   14 0 1 BUS 14      345.0
   15 0 1 BUS 15      345.0       320.0 153.0
   16 0 1 BUS 16      345.0       329.0  32.3
   17 0 1 BUS 17      345.0
   18 0 1 BUS 18      345.0       158.0  30.0
   19 0 1 BUS 19      345.0
   20 0 1 BUS 20      345.0       628.0 103.0
   21 0 1 BUS 21      345.0       274.0 115.0
   22 0 1 BUS 22      345.0
   23 0 1 BUS 23      345.0       247.5  84.6
   24 0 1 BUS 24      345.0       308.6  92.2
   25 0 1 BUS 25      345.0       224.0  47.2
   26 0 1 BUS 26      345.0       139.0  17.0
   27 0 1 BUS 27      345.0       281.0  75.5
   28 0 1 BUS 28      345.0       206.0  27.6
   29 0 1 BUS 29      345.0       283.5  26.9
   30 0 2 GEN 30      345.0 1.0475       250.0  9999 -9999
   31 0 3 GEN 31      345.0 0.9820       0.0    9999 -9999
   32 0 2 GEN 32      345.0 0.9831       650.0  9999 -9999
   33 0 2 GEN 33      345.0 0.9972       632.0  9999 -9999
   34 0 2 GEN 34      345.0 1.0123       508.0  9999 -9999
   35 0 2 GEN 35      345.0 1.0493       650.0  9999 -9999
   36 0 2 GEN 36      345.0 1.0635       560.0  9999 -9999
   37 0 2 GEN 37      345.0 1.0278       540.0  9999 -9999
   38 0 2 GEN 38      345.0 1.0265       830.0  9999 -9999
   39 0 2 GEN 39      345.0 1.0300      1000.0  9999 -9999
DLIN
    1    2 1 0.0035 0.0411 0.6987
    1   39 1 0.0010 0.0250 0.7500
    2    3 1 0.0013 0.0151 0.2572
    2   25 1 0.0070 0.0086 0.1460
    3    4 1 0.0013 0.0213 0.2214
    3   18 1 0.0011 0.0133 0.2138
    4    5 1 0.0008 0.0128 0.1342
    4   14 1 0.0008 0.0129 0.1382
    5    6 1 0.0002 0.0026 0.0434
    5    8 1 0.0008 0.0112 0.1476
    6    7 1 0.0006 0.0092 0.1130
    6   11 1 0.0007 0.0082 0.1389
    7    8 1 0.0004 0.0046 0.0780
    8    9 1 0.0023 0.0363 0.3804
    9   39 1 0.0010 0.0250 1.2000
   10   11 1 0.0004 0.0043 0.0729
   10   13 1 0.0004 0.0043 0.0729
   13   14 1 0.0009 0.0101 0.1723
   14   15 1 0.0018 0.0217 0.3660
   15   16 1 0.0009 0.0094 0.1710
   16   17 1 0.0007 0.0089 0.1342
   16   19 1 0.0016 0.0195 0.3040
   16   21 1 0.0008 0.0135 0.2548
   16   24 1 0.0003 0.0059 0.0680
   17   18 1 0.0007 0.0082 0.1319
   17   27 1 0.0013 0.0173 0.3216
   21   22 1 0.0008 0.0140 0.2565
   22   23 1 0.0006 0.0096 0.1846
   23   24 1 0.0022 0.0350 0.3610
   25   26 1 0.0032 0.0323 0.5130
   26   27 1 0.0014 0.0147 0.2396
   26   28 1 0.0043 0.0474 0.7802
   26   29 1 0.0057 0.0625 1.0290
   28   29 1 0.0014 0.0151 0.2490
DGLO
BASE 100.0
EXEC
FIM
